*Heading
** Job name: Cantilever Model name: Model-1
** Generated by: Abaqus/CAE 6.13-3
*Preprint, echo=NO, model=NO, history=NO, contact=NO
**
** PARTS
**
*Part, name=Part-1
*Node
      1,         100.,           1.,          0.5
      2,         100.,           0.,          0.5
      3,         100.,           0.,           0.
      4,         100.,           1.,           0.
      5,           0.,           0.,          0.5
      6,           0.,           0.,           0.
      7,           0.,           1.,           0.
      8,           0.,           1.,          0.5
      9,         100.,           1.,           1.
     10,         100.,           0.,           1.
     11,           0.,           1.,           1.
     12,           0.,           0.,           1.
     13,         100.,          0.5,          0.5
     14,         100.,          0.5,           0.
     15,           0.,          0.5,          0.5
     16,           0.,          0.5,           0.
     17,   99.5999985,           1.,           0.
     18,   99.1999969,           1.,           0.
     19,   98.8000031,           1.,           0.
     20,   98.4000015,           1.,           0.
** ... 2239 like lines cut
*Element, type=C3D8R
  1,  514, 1513, 1762,   17,    1,   13,   14,    4
  2, 1513,  764,  763, 1762,   13,    2,    3,   14
  3,  513, 1514, 1763,   18,  514, 1513, 1762,   17
  4, 1514,  765,  762, 1763, 1513,  764,  763, 1762
  5,  512, 1515, 1764,   19,  513, 1514, 1763,   18
  6, 1515,  766,  761, 1764, 1514,  765,  762, 1763
  7,  511, 1516, 1765,   20,  512, 1515, 1764,   19
  8, 1516,  767,  760, 1765, 1515,  766,  761, 1764
  9,  510, 1517, 1766,   21,  511, 1516, 1765,   20
 10, 1517,  768,  759, 1766, 1516,  767,  760, 1765
 11,  509, 1518, 1767,   22,  510, 1517, 1766,   21
 12, 1518,  769,  758, 1767, 1517,  768,  759, 1766
 13,  508, 1519, 1768,   23,  509, 1518, 1767,   22
 14, 1519,  770,  757, 1768, 1518,  769,  758, 1767
 15,  507, 1520, 1769,   24,  508, 1519, 1768,   23
 16, 1520,  771,  756, 1769, 1519,  770,  757, 1768
 17,  506, 1521, 1770,   25,  507, 1520, 1769,   24
 18, 1521,  772,  755, 1770, 1520,  771,  756, 1769
 19,  505, 1522, 1771,   26,  506, 1521, 1770,   25
 20, 1522,  773,  754, 1771, 1521,  772,  755, 1770
** ... 980 like lines cut
*Nset, nset=Set-1
    1,    2,    3,    4,    5,    6,    7,    8,   13,   14,   15,   16,   17,   18,   19,   20
   21,   22,   23,   24,   25,   26,   27,   28,   29,   30,   31,   32,   33,   34,   35,   36
   37,   38,   39,   40,   41,   42,   43,   44,   45,   46,   47,   48,   49,   50,   51,   52
   53,   54,   55,   56,   57,   58,   59,   60,   61,   62,   63,   64,   65,   66,   67,   68
   69,   70,   71,   72,   73,   74,   75,   76,   77,   78,   79,   80,   81,   82,   83,   84
   85,   86,   87,   88,   89,   90,   91,   92,   93,   94,   95,   96,   97,   98,   99,  100
  101,  102,  103,  104,  105,  106,  107,  108,  109,  110,  111,  112,  113,  114,  115,  116
  117,  118,  119,  120,  121,  122,  123,  124,  125,  126,  127,  128,  129,  130,  131,  132
  133,  134,  135,  136,  137,  138,  139,  140,  141,  142,  143,  144,  145,  146,  147,  148
  149,  150,  151,  152,  153,  154,  155,  156,  157,  158,  159,  160,  161,  162,  163,  164
  165,  166,  167,  168,  169,  170,  171,  172,  173,  174,  175,  176,  177,  178,  179,  180
  181,  182,  183,  184,  185,  186,  187,  188,  189,  190,  191,  192,  193,  194,  195,  196
  197,  198,  199,  200,  201,  202,  203,  204,  205,  206,  207,  208,  209,  210,  211,  212
  213,  214,  215,  216,  217,  218,  219,  220,  221,  222,  223,  224,  225,  226,  227,  228
  229,  230,  231,  232,  233,  234,  235,  236,  237,  238,  239,  240,  241,  242,  243,  244
  245,  246,  247,  248,  249,  250,  251,  252,  253,  254,  255,  256,  257,  258,  259,  260
  261,  262,  263,  264,  265,  266,  267,  268,  269,  270,  271,  272,  273,  274,  275,  276
  277,  278,  279,  280,  281,  282,  283,  284,  285,  286,  287,  288,  289,  290,  291,  292
  293,  294,  295,  296,  297,  298,  299,  300,  301,  302,  303,  304,  305,  306,  307,  308
  309,  310,  311,  312,  313,  314,  315,  316,  317,  318,  319,  320,  321,  322,  323,  324
** ... 75 like lines cut
*Elset, elset=Set-1, generate
   1,  500,    1
*Nset, nset=Set-2
    1,    2,    5,    8,    9,   10,   11,   12,   13,   15,  266,  267,  268,  269,  270,  271
  272,  273,  274,  275,  276,  277,  278,  279,  280,  281,  282,  283,  284,  285,  286,  287
  288,  289,  290,  291,  292,  293,  294,  295,  296,  297,  298,  299,  300,  301,  302,  303
  304,  305,  306,  307,  308,  309,  310,  311,  312,  313,  314,  315,  316,  317,  318,  319
  320,  321,  322,  323,  324,  325,  326,  327,  328,  329,  330,  331,  332,  333,  334,  335
  336,  337,  338,  339,  340,  341,  342,  343,  344,  345,  346,  347,  348,  349,  350,  351
  352,  353,  354,  355,  356,  357,  358,  359,  360,  361,  362,  363,  364,  365,  366,  367
  368,  369,  370,  371,  372,  373,  374,  375,  376,  377,  378,  379,  380,  381,  382,  383
  384,  385,  386,  387,  388,  389,  390,  391,  392,  393,  394,  395,  396,  397,  398,  399
  400,  401,  402,  403,  404,  405,  406,  407,  408,  409,  410,  411,  412,  413,  414,  415
  416,  417,  418,  419,  420,  421,  422,  423,  424,  425,  426,  427,  428,  429,  430,  431
  432,  433,  434,  435,  436,  437,  438,  439,  440,  441,  442,  443,  444,  445,  446,  447
  448,  449,  450,  451,  452,  453,  454,  455,  456,  457,  458,  459,  460,  461,  462,  463
  464,  465,  466,  467,  468,  469,  470,  471,  472,  473,  474,  475,  476,  477,  478,  479
  480,  481,  482,  483,  484,  485,  486,  487,  488,  489,  490,  491,  492,  493,  494,  495
  496,  497,  498,  499,  500,  501,  502,  503,  504,  505,  506,  507,  508,  509,  510,  511
  512,  513,  514,  764,  765,  766,  767,  768,  769,  770,  771,  772,  773,  774,  775,  776
  777,  778,  779,  780,  781,  782,  783,  784,  785,  786,  787,  788,  789,  790,  791,  792
  793,  794,  795,  796,  797,  798,  799,  800,  801,  802,  803,  804,  805,  806,  807,  808
  809,  810,  811,  812,  813,  814,  815,  816,  817,  818,  819,  820,  821,  822,  823,  824
** ... 75 like lines cut
*Elset, elset=Set-2, generate
  501,  1000,     1
** Section: Section-1
*Solid Section, elset=Set-1, material=Material-1
,
** Section: Section-2
*Solid Section, elset=Set-2, material=Material-2
,
*End Part
**  
**
** ASSEMBLY
**
*Assembly, name=Assembly
**  
*Instance, name=Part-1-1, part=Part-1
*End Instance
**  
*End Assembly
** 
** MATERIALS
** 
*Material, name=Material-1
*Elastic
1., 0.1
*Material, name=Material-2
*Elastic
2., 0.2
